7jrn_ligand
 OpenBabel02252410383D

 22 22  0  0  0  0  0  0  0  0999 V2000
   10.5271  -10.5966   32.8320 C   0  0  0  0  0  0  0  0  0  0  0  0
   10.2165   -9.1499   32.9732 C   0  0  0  0  0  0  0  0  0  0  0  0
   11.2215   -8.1505   33.0408 C   0  0  0  0  0  0  0  0  0  0  0  0
    8.8706   -8.7331   33.0380 C   0  0  0  0  0  0  0  0  0  0  0  0
   12.7080   -8.4631   32.9774 C   0  0  0  0  0  0  0  0  0  0  0  0
    8.5329   -7.3927   33.1697 C   0  0  0  0  0  0  0  0  0  0  0  0
    9.5286   -6.4298   33.2379 C   0  0  0  0  0  0  0  0  0  0  0  0
   11.6560  -11.0688   32.7608 O   0  0  0  0  0  0  0  0  0  0  0  0
   10.8629   -6.8093   33.1728 C   0  0  0  0  0  0  0  0  0  0  0  0
    9.5017  -11.5118   32.7846 N   0  0  0  0  0  0  0  0  0  0  0  0
    9.7289  -12.9608   32.7181 C   0  0  0  0  0  0  0  0  0  0  0  0
   12.9970   -9.1194   33.7990 H   0  0  0  0  0  0  0  0  0  0  0  0
   12.9558   -8.9566   32.0370 H   0  0  0  0  0  0  0  0  0  0  0  0
   13.3181   -7.5630   33.0462 H   0  0  0  0  0  0  0  0  0  0  0  0
    8.0861   -9.4390   32.9842 H   0  0  0  0  0  0  0  0  0  0  0  0
    9.2724   -5.4058   33.3384 H   0  0  0  0  0  0  0  0  0  0  0  0
   11.6129   -6.0620   33.2247 H   0  0  0  0  0  0  0  0  0  0  0  0
    8.5451  -11.1754   32.9390 H   0  0  0  0  0  0  0  0  0  0  0  0
   10.5238  -13.2039   32.0095 H   0  0  0  0  0  0  0  0  0  0  0  0
   10.0272  -13.3531   33.6917 H   0  0  0  0  0  0  0  0  0  0  0  0
    8.8299  -13.4894   32.3987 H   0  0  0  0  0  0  0  0  0  0  0  0
    7.5140   -7.1027   33.2172 H   0  0  0  0  0  0  0  0  0  0  0  0
  1  2  1  0  0  0  0
  1  8  2  0  0  0  0
  1 10  1  0  0  0  0
  2  3  2  0  0  0  0
  2  4  1  0  0  0  0
  3  5  1  0  0  0  0
  3  9  1  0  0  0  0
  4  6  2  0  0  0  0
  4 15  1  0  0  0  0
  5 12  1  0  0  0  0
  5 13  1  0  0  0  0
  5 14  1  0  0  0  0
  6  7  1  0  0  0  0
  6 22  1  0  0  0  0
  7  9  2  0  0  0  0
  7 16  1  0  0  0  0
  9 17  1  0  0  0  0
 10 11  1  0  0  0  0
 10 18  1  0  0  0  0
 11 19  1  0  0  0  0
 11 20  1  0  0  0  0
 11 21  1  0  0  0  0
M  END
$$$$
